Circuit: * G:\Andere Computer\Mein PC\Fynn\Projekte\Drone\Aeolus\S3-S4_Battery_Charger\Simulations\Lap_Power_supply.asc

WARNING: Node NC_01 is floating.
WARNING: Node NC_02 is floating.

WARNING: Less than two connections to node NC_01.  This node is used by C2.
WARNING: Less than two connections to node NC_02.  This node is used by C3.
Direct Newton iteration for .op point succeeded.

Date: Sun Oct 20 16:39:48 2024
Total elapsed time: 0.713 seconds.

tnom = 27
temp = 27
method = modified trap
totiter = 33773
traniter = 33767
tranpoints = 9541
accept = 7048
rejected = 2493
matrix size = 48
fillins = 38
solver = Normal
Thread vector: 13.8/5.8[4] 2.4/2.1[2] 2.0/1.8[2] 0.2/1.1[1]  2592/500
Matrix Compiler1: 5.35 KB object code size  1.1/0.6/[0.2]
Matrix Compiler2: 4.96 KB object code size  0.4/0.5/[0.4]

